<?xml version="1.0" encoding="UTF-8"?>
<routes
    xmlns:xsi="http://www.w3.org/2001/XMLSchema-instance"
    xsi:noNamespaceSchemaLocation="http://sumo.dlr.de/xsd/routes_file.xsd">

    <!-- Fahrzeugtyp -->
    <vType id="car" accel="1.0" decel="4.5" sigma="0.5"
           length="5.0" maxSpeed="13.9"/>

    <!-- Dummy-Route (damit vehicle.add(...) immer etwas hat) -->
    <route id="r0" edges="edge0"/>
</routes>
